src/main/resources/loadflowreferences/NetworkReference_CASE1888RTE_STANDARD.xiidm
<?xml version='1.0' encoding='UTF-8'?>
<iidm:network xmlns:iidm="http://www.powsybl.org/schema/iidm/1_7" xmlns:slt="http://www.powsybl.org/schema/iidm/ext/slack_terminal/1_4" id="case1888rte" caseDate="2022-04-21T11:16:17.422+02:00" forecastDistance="0" sourceFormat="MATPOWER" minimumValidationLevel="STEADY_STATE_HYPOTHESIS">
    <iidm:substation id="SUB-1124">
        <iidm:voltageLevel id="VL-1" nominalV="1.0" topologyKind="BUS_BREAKER">
            <iidm:busBreakerTopology>
                <iidm:bus id="BUS-1" v="1.0315155333763786" angle="-43.439951625593956"/>
            </iidm:busBreakerTopology>
            <iidm:load id="LOAD-1" loadType="UNDEFINED" p0="5.8" q0="-5.8" bus="BUS-1" connectableBus="BUS-1" p="5.8" q="-5.8"/>
        </iidm:voltageLevel>
    </iidm:substation>
    <iidm:substation id="SUB-1125">
        <iidm:voltageLevel id="VL-2" nominalV="1.0" topologyKind="BUS_BREAKER">
            <iidm:busBreakerTopology>
                <iidm:bus id="BUS-2" v="1.0521834166410056" angle="-1.6212571163266938"/>
            </iidm:busBreakerTopology>
        </iidm:voltageLevel>
    </iidm:substation>
    <iidm:substation id="SUB-1126">
        <iidm:voltageLevel id="VL-3" nominalV="1.0" topologyKind="BUS_BREAKER">
            <iidm:busBreakerTopology>
                <iidm:bus id="BUS-3" v="1.0449075184387844" angle="-18.256144439476163"/>
            </iidm:busBreakerTopology>
            <iidm:load id="LOAD-3" loadType="UNDEFINED" p0="142.5" q0="-13.4" bus="BUS-3" connectableBus="BUS-3" p="142.5" q="-13.4"/>
        </iidm:voltageLevel>
    </iidm:substation>
    <iidm:substation id="SUB-565">
        <iidm:voltageLevel id="VL-4" nominalV="1.0" topologyKind="BUS_BREAKER">
            <iidm:busBreakerTopology>
                <iidm:bus id="BUS-4" v="1.0646135181409542" angle="-20.552550150655843"/>
            </iidm:busBreakerTopology>
        </iidm:voltageLevel>
        <iidm:voltageLevel id="VL-6" nominalV="1.0" topologyKind="BUS_BREAKER">
            <iidm:busBreakerTopology>
                <iidm:bus id="BUS-6" v="1.060577835615717" angle="-25.244999285705028"/>
            </iidm:busBreakerTopology>
            <iidm:load id="LOAD-6" loadType="UNDEFINED" p0="40.2" q0="4.0" bus="BUS-6" connectableBus="BUS-6" p="40.2" q="4.0"/>
        </iidm:voltageLevel>
        <iidm:voltageLevel id="VL-1576" nominalV="1.0" topologyKind="BUS_BREAKER">
            <iidm:busBreakerTopology>
                <iidm:bus id="BUS-1576" v="1.0637379784427856" angle="-25.910052420072066"/>
            </iidm:busBreakerTopology>
        </iidm:voltageLevel>
        <iidm:twoWindingsTransformer id="TWT-4-6" r="3.5560000000000005E-5" x="0.00120296" g="0.0" b="0.0" ratedU1="0.978474" ratedU2="1.0" bus1="BUS-4" connectableBus1="BUS-4" voltageLevelId1="VL-4" bus2="BUS-6" connectableBus2="BUS-6" voltageLevelId2="VL-6" p1="79.23382667943788" q1="25.70668996910571" p2="-79.02539543217655" q2="-18.6556648508415"/>
        <iidm:twoWindingsTransformer id="TWT-6-1576" r="1.8000000000000001E-6" x="-6.163E-5" g="0.0" b="0.0" ratedU1="0.999001" ratedU2="1.0" bus1="BUS-6" connectableBus1="BUS-6" voltageLevelId1="VL-6" bus2="BUS-1576" connectableBus2="BUS-1576" voltageLevelId2="VL-1576" p1="-213.5261681663748" q1="28.696374155404563" p2="213.60029841374958" q2="-31.23451145857653">
            <iidm:apparentPowerLimits1 permanentLimit="1186.0">
                <iidm:temporaryLimit name="RateB" acceptableDuration="1200" value="1186.0"/>
                <iidm:temporaryLimit name="RateC" acceptableDuration="60" value="1186.0"/>
            </iidm:apparentPowerLimits1>
        </iidm:twoWindingsTransformer>
    </iidm:substation>
    <iidm:substation id="SUB-617">
        <iidm:voltageLevel id="VL-5" nominalV="1.0" topologyKind="BUS_BREAKER">
            <iidm:busBreakerTopology>
                <iidm:bus id="BUS-5" v="1.061619877882966" angle="-24.934482871166274"/>
            </iidm:busBreakerTopology>
            <iidm:load id="LOAD-5" loadType="UNDEFINED" p0="32.8" q0="-5.3" bus="BUS-5" connectableBus="BUS-5" p="32.8" q="-5.3"/>
        </iidm:voltageLevel>
        <iidm:voltageLevel id="VL-1599" nominalV="1.0" topologyKind="BUS_BREAKER">
            <iidm:busBreakerTopology>
                <iidm:bus id="BUS-1599" v="1.0648932728384484" angle="-25.521389976157597"/>
            </iidm:busBreakerTopology>
        </iidm:voltageLevel>
        <iidm:twoWindingsTransformer id="TWT-5-1599" r="1.8000000000000001E-6" x="-6.163E-5" g="0.0" b="0.0" ratedU1="0.999001" ratedU2="1.0" bus1="BUS-5" connectableBus1="BUS-5" voltageLevelId1="VL-5" bus2="BUS-1599" connectableBus2="BUS-1599" voltageLevelId2="VL-1599" p1="-189.0103705919149" q1="31.65381570593917" p2="189.06891027321362" q2="-33.65814934951483">
            <iidm:apparentPowerLimits1 permanentLimit="1188.0">
                <iidm:temporaryLimit name="RateB" acceptableDuration="1200" value="1188.0"/>
                <iidm:temporaryLimit name="RateC" acceptableDuration="60" value="1188.0"/>
            </iidm:apparentPowerLimits1>
        </iidm:twoWindingsTransformer>
    </iidm:substation>
    <iidm:substation id="SUB-1112">
        <iidm:voltageLevel id="VL-7" nominalV="1.0" topologyKind="BUS_BREAKER">
            <iidm:busBreakerTopology>
                <iidm:bus id="BUS-7" v="1.053813913424353" angle="-21.41396691237373"/>
            </iidm:busBreakerTopology>
        </iidm:voltageLevel>
    </iidm:substation>
    <iidm:substation id="SUB-1113">
        <iidm:voltageLevel id="VL-8" nominalV="1.0" topologyKind="BUS_BREAKER">
            <iidm:busBreakerTopology>
                <iidm:bus id="BUS-8" v="1.0570913173248035" angle="-22.549458928000142"/>
            </iidm:busBreakerTopology>
        </iidm:voltageLevel>
    </iidm:substation>
    <iidm:substation id="SUB-1114">
        <iidm:voltageLevel id="VL-9" nominalV="1.0" topologyKind="BUS_BREAKER">
            <iidm:busBreakerTopology>
                <iidm:bus id="BUS-9" v="1.04790864494064" angle="-36.45994022675267"/>
            </iidm:busBreakerTopology>
        </iidm:voltageLevel>
    </iidm:substation>
    <iidm:substation id="SUB-467">
        <iidm:voltageLevel id="VL-10" nominalV="1.0" topologyKind="BUS_BREAKER">
            <iidm:busBreakerTopology>
                <iidm:bus id="BUS-10" v="1.0443788624206323" angle="-29.16975485161065"/>
            </iidm:busBreakerTopology>
            <iidm:load id="LOAD-10" loadType="UNDEFINED" p0="148.8" q0="14.9" bus="BUS-10" connectableBus="BUS-10" p="148.8" q="14.9"/>
        </iidm:voltageLevel>
    </iidm:substation>
    <iidm:substation id="SUB-465">
        <iidm:voltageLevel id="VL-11" nominalV="1.0" topologyKind="BUS_BREAKER">
            <iidm:busBreakerTopology>
                <iidm:bus id="BUS-11" v="1.043193666994691" angle="-40.78625983917183"/>
            </iidm:busBreakerTopology>
            <iidm:load id="LOAD-11" loadType="UNDEFINED" p0="25.6" q0="5.0" bus="BUS-11" connectableBus="BUS-11" p="25.6" q="5.0"/>
        </iidm:voltageLevel>
    </iidm:substation>
    <iidm:substation id="SUB-464">
        <iidm:voltageLevel id="VL-12" nominalV="1.0" topologyKind="BUS_BREAKER">
            <iidm:busBreakerTopology>
                <iidm:bus id="BUS-12" v="1.0228208422687388" angle="-40.318437658976826"/>
            </iidm:busBreakerTopology>
            <iidm:load id="LOAD-12" loadType="UNDEFINED" p0="39.1" q0="8.7" bus="BUS-12" connectableBus="BUS-12" p="39.1" q="8.7"/>
        </iidm:voltageLevel>
    </iidm:substation>
    <iidm:substation id="SUB-463">
        <iidm:voltageLevel id="VL-13" nominalV="1.0" topologyKind="BUS_BREAKER">
            <iidm:busBreakerTopology>
                <iidm:bus id="BUS-13" v="1.043178472065447" angle="-40.78339780412323"/>
            </iidm:busBreakerTopology>
            <iidm:load id="LOAD-13" loadType="UNDEFINED" p0="70.5" q0="17.2" bus="BUS-13" connectableBus="BUS-13" p="70.5" q="17.2"/>
        </iidm:voltageLevel>
    </iidm:substation>
    <iidm:substation id="SUB-462">
        <iidm:voltageLevel id="VL-14" nominalV="1.0" topologyKind="BUS_BREAKER">
            <iidm:busBreakerTopology>
                <iidm:bus id="BUS-14" v="1.0289342835519675" angle="-42.5166409650608"/>
            </iidm:busBreakerTopology>
            <iidm:generator id="GEN-14" energySource="OTHER" minP="5.52" maxP="27.6" voltageRegulatorOn="true" targetP="2.38" targetV="1.029" targetQ="0.0" bus="BUS-14" connectableBus="BUS-14" p="-2.38" q="-0.0">
                <iidm:minMaxReactiveLimits minQ="0.0" maxQ="0.0"/>
            </iidm:generator>
            <iidm:generator id="GEN-14#0" energySource="OTHER" minP="4.8" maxP="24.0" voltageRegulatorOn="true" targetP="0.64" targetV="1.029" targetQ="0.0" bus="BUS-14" connectableBus="BUS-14" p="-0.64" q="-0.0">
                <iidm:minMaxReactiveLimits minQ="0.0" maxQ="0.0"/>
            </iidm:generator>
            <iidm:load id="LOAD-14" loadType="UNDEFINED" p0="36.0" q0="-4.2" bus="BUS-14" connectableBus="BUS-14" p="36.0" q="-4.2"/>
        </iidm:voltageLevel>
    </iidm:substation>
    <iidm:substation id="SUB-461">
        <iidm:voltageLevel id="VL-15" nominalV="1.0" topologyKind="BUS_BREAKER">
            <iidm:busBreakerTopology>
                <iidm:bus id="BUS-15" v="1.0526307299956095" angle="-32.73434299742574"/>
            </iidm:busBreakerTopology>
        </iidm:voltageLevel>
        <iidm:voltageLevel id="VL-1678" nominalV="1.0" topologyKind="BUS_BREAKER">
            <iidm:busBreakerTopology>
                <iidm:bus id="BUS-1678" v="0.957" angle="-29.141499961563312"/>
            </iidm:busBreakerTopology>
            <iidm:generator id="GEN-1678" energySource="OTHER" minP="8.5" maxP="95.0" voltageRegulatorOn="true" targetP="91.0" targetV="0.957" targetQ="-0.46" bus="BUS-1678" connectableBus="BUS-1678" p="-90.9952095813115" q="-0.8052382450492692">
                <iidm:minMaxReactiveLimits minQ="-61.4" maxQ="104.12"/>
            </iidm:generator>
            <iidm:load id="LOAD-1678" loadType="UNDEFINED" p0="3.5" q0="2.2" bus="BUS-1678" connectableBus="BUS-1678" p="3.5000000000000004" q="2.2"/>
        </iidm:voltageLevel>
        <iidm:twoWindingsTransformer id="TWT-15-1678" r="0.0" x="6.579E-4" g="0.0" b="0.0" ratedU1="1.096667" ratedU2="1.0" bus1="BUS-15" connectableBus1="BUS-15" voltageLevelId1="VL-15" bus2="BUS-1678" connectableBus2="BUS-1678" voltageLevelId2="VL-1678" p1="-87.49520958129825" q1="6.895423119207105" p2="87.49520958129824" q2="-1.394761754950731"/>
    </iidm:substation>
    <iidm:substation id="SUB-460">
        <iidm:voltageLevel id="VL-16" nominalV="1.0" topologyKind="BUS_BREAKER">
            <iidm:busBreakerTopology>
                <iidm:bus id="BUS-16" v="1.052631131380003" angle="-32.73434581987566"/>
            </iidm:busBreakerTopology>
        </iidm:voltageLevel>
        <iidm:voltageLevel id="VL-1679" nominalV="1.0" topologyKind="BUS_BREAKER">
            <iidm:busBreakerTopology>
                <iidm:bus id="BUS-1679" v="0.957" angle="-29.1415041558179"/>
            </iidm:busBreakerTopology>
            <iidm:generator id="GEN-1679" energySource="OTHER" minP="8.5" maxP="95.0" voltageRegulatorOn="true" targetP="91.0" targetV="0.957" targetQ="-0.45" bus="BUS-1679" connectableBus="BUS-1679" p="-90.9952095813115" q="-0.8047047969447165">
                <iidm:minMaxReactiveLimits minQ="-61.58" maxQ="103.94"/>
            </iidm:generator>
            <iidm:load id="LOAD-1679" loadType="UNDEFINED" p0="3.5" q0="2.2" bus="BUS-1679" connectableBus="BUS-1679" p="3.5000000000000004" q="2.2"/>
        </iidm:voltageLevel>
        <iidm:twoWindingsTransformer id="TWT-16-1679" r="0.0" x="6.579E-4" g="0.0" b="0.0" ratedU1="1.096667" ratedU2="1.0" bus1="BUS-16" connectableBus1="BUS-16" voltageLevelId1="VL-16" bus2="BUS-1679" connectableBus2="BUS-1679" voltageLevelId2="VL-1679" p1="-87.49520958129827" q1="6.895957636467869" p2="87.49520958129827" q2="-1.3952952030552837"/>
    </iidm:substation>
    <iidm:substation id="SUB-458">
        <iidm:voltageLevel id="VL-17" nominalV="1.0" topologyKind="BUS_BREAKER">
            <iidm:busBreakerTopology>
                <iidm:bus id="BUS-17" v="1.0290043954564754" angle="-42.5473347194658"/>
            </iidm:busBreakerTopology>
            <iidm:load id="LOAD-17" loadType="UNDEFINED" p0="23.7" q0="-12.4" bus="BUS-17" connectableBus="BUS-17" p="23.7" q="-12.4"/>
        </iidm:voltageLevel>
    </iidm:substation>
    <iidm:substation id="SUB-456">
        <iidm:voltageLevel id="VL-18" nominalV="1.0" topologyKind="BUS_BREAKER">
            <iidm:busBreakerTopology>
                <iidm:bus id="BUS-18" v="1.0382700068278994" angle="-34.77507278213833"/>
            </iidm:busBreakerTopology>
            <iidm:load id="LOAD-18" loadType="UNDEFINED" p0="5.9" q0="-4.8" bus="BUS-18" connectableBus="BUS-18" p="5.9" q="-4.8"/>
        </iidm:voltageLevel>
    </iidm:substation>
    <iidm:substation id="SUB-454">
        <iidm:voltageLevel id="VL-19" nominalV="1.0" topologyKind="BUS_BREAKER">
            <iidm:busBreakerTopology>
                <iidm:bus id="BUS-19" v="1.0358915871175876" angle="-40.8965224458339"/>
            </iidm:busBreakerTopology>
            <iidm:load id="LOAD-19" loadType="UNDEFINED" p0="34.0" q0="3.7" bus="BUS-19" connectableBus="BUS-19" p="34.0" q="3.7"/>
        </iidm:voltageLevel>
    </iidm:substation>
    <iidm:substation id="SUB-497">
        <iidm:voltageLevel id="VL-20" nominalV="1.0" topologyKind="BUS_BREAKER">
            <iidm:busBreakerTopology>
                <iidm:bus id="BUS-20" v="1.03591819700445" angle="-40.89422377582646"/>
            </iidm:busBreakerTopology>
            <iidm:load id="LOAD-20" loadType="UNDEFINED" p0="6.9" q0="0.8" bus="BUS-20" connectableBus="BUS-20" p="6.9" q="0.8"/>
        </iidm:voltageLevel>
    </iidm:substation>
    <iidm:substation id="SUB-495">
        <iidm:voltageLevel id="VL-21" nominalV="1.0" topologyKind="BUS_BREAKER">
            <iidm:busBreakerTopology>
                <iidm:bus id="BUS-21" v="1.045599157408193" angle="-37.64047577431951"/>
            </iidm:busBreakerTopology>
            <iidm:load id="LOAD-21" loadType="UNDEFINED" p0="9.2" q0="-29.1" bus="BUS-21" connectableBus="BUS-21" p="9.2" q="-29.1"/>
        </iidm:voltageLevel>
    </iidm:substation>
    <iidm:substation id="SUB-492">
        <iidm:voltageLevel id="VL-22" nominalV="1.0" topologyKind="BUS_BREAKER">
            <iidm:busBreakerTopology>
                <iidm:bus id="BUS-22" v="1.0452155405486356" angle="-37.96495349195371"/>
            </iidm:busBreakerTopology>
            <iidm:load id="LOAD-22" loadType="UNDEFINED" p0="67.7" q0="-3.6" bus="BUS-22" connectableBus="BUS-22" p="67.7" q="-3.6"/>
        </iidm:voltageLevel>
    </iidm:substation>
    <iidm:substation id="SUB-491">
        <iidm:voltageLevel id="VL-23" nominalV="1.0" topologyKind="BUS_BREAKER">
            <iidm:busBreakerTopology>
                <iidm:bus id="BUS-23" v="1.0214756417203665" angle="-46.96924234275605"/>
            </iidm:busBreakerTopology>
            <iidm:load id="LOAD-23" loadType="UNDEFINED" p0="25.4" q0="-2.7" bus="BUS-23" connectableBus="BUS-23" p="25.4" q="-2.7"/>
        </iidm:voltageLevel>
    </iidm:substation>
    <iidm:substation id="SUB-490">
        <iidm:voltageLevel id="VL-25" nominalV="1.0" topologyKind="BUS_BREAKER">
            <iidm:busBreakerTopology>
                <iidm:bus id="BUS-25" v="1.0545572997431798" angle="-16.430240894186248"/>
            </iidm:busBreakerTopology>
            <iidm:load id="LOAD-25" loadType="UNDEFINED" p0="64.0" q0="4.6" bus="BUS-25" connectableBus="BUS-25" p="64.0" q="4.6"/>
        </iidm:voltageLevel>
    </iidm:substation>
    <iidm:substation id="SUB-488">
        <iidm:voltageLevel id="VL-27" nominalV="1.0" topologyKind="BUS_BREAKER">
            <iidm:busBreakerTopology>
                <iidm:bus id="BUS-27" v="1.02097084936474" angle="-19.8536762616901"/>
            </iidm:busBreakerTopology>
            <iidm:load id="LOAD-27" loadType="UNDEFINED" p0="71.6" q0="46.7" bus="BUS-27" connectableBus="BUS-27" p="71.6" q="46.7"/>
        </iidm:voltageLevel>
    </iidm:substation>
    <iidm:substation id="SUB-487">
        <iidm:voltageLevel id="VL-28" nominalV="1.0" topologyKind="BUS_BREAKER">
            <iidm:busBreakerTopology>
                <iidm:bus id="BUS-28" v="1.037347990036478" angle="-35.816464468877165"/>
            </iidm:busBreakerTopology>
            <iidm:load id="LOAD-28" loadType="UNDEFINED" p0="105.4" q0="6.9" bus="BUS-28" connectableBus="BUS-28" p="105.4" q="6.9"/>
        </iidm:voltageLevel>
    </iidm:substation>
    <iidm:substation id="SUB-485">
        <iidm:voltageLevel id="VL-29" nominalV="1.0" topologyKind="BUS_BREAKER">
            <iidm:busBreakerTopology>
                <iidm:bus id="BUS-29" v="1.0521495019260985" angle="-1.6076431491255192"/>
            </iidm:busBreakerTopology>
        </iidm:voltageLevel>
        <iidm:voltageLevel id="VL-1628" nominalV="1.0" topologyKind="BUS_BREAKER">
            <iidm:busBreakerTopology>
                <iidm:bus id="BUS-1628" v="0.95" angle="0.8642621692629286"/>
            </iidm:busBreakerTopology>
            <iidm:generator id="GEN-1628" energySource="OTHER" minP="200.0" maxP="670.0" voltageRegulatorOn="true" targetP="200.0" targetV="0.95" targetQ="-60.27" bus="BUS-1628" connectableBus="BUS-1628" p="-200.0" q="60.25170480291162">
                <iidm:minMaxReactiveLimits minQ="-217.55" maxQ="155.3"/>
            </iidm:generator>
        </iidm:voltageLevel>
        <iidm:twoWindingsTransformer id="TWT-29-1628" r="0.0" x="1.9737000000000002E-4" g="0.0" b="0.0" ratedU1="1.092105" ratedU2="1.0" bus1="BUS-29" connectableBus1="BUS-29" voltageLevelId1="VL-29" bus2="BUS-1628" connectableBus2="BUS-1628" voltageLevelId2="VL-1628" p1="-199.99999637402527" q1="69.79331776181229" p2="199.99999637402524" q2="-60.25170480291162">
            <iidm:apparentPowerLimits1 permanentLimit="254.0">
                <iidm:temporaryLimit name="RateB" acceptableDuration="1200" value="254.0"/>
                <iidm:temporaryLimit name="RateC" acceptableDuration="60" value="254.0"/>
            </iidm:apparentPowerLimits1>
        </iidm:twoWindingsTransformer>
    </iidm:substation>
    <iidm:substation id="SUB-409">
        <iidm:voltageLevel id="VL-30" nominalV="1.0" topologyKind="BUS_BREAKER">
            <iidm:busBreakerTopology>
                <iidm:bus id="BUS-30" v="1.0521782564174544" angle="-1.5912784491588001"/>
            </iidm:busBreakerTopology>
        </iidm:voltageLevel>
        <iidm:voltageLevel id="VL-1629" nominalV="1.0" topologyKind="BUS_BREAKER">
            <iidm:busBreakerTopology>
                <iidm:bus id="BUS-1629" v="0.95" angle="3.9773286084074444"/>
            </iidm:busBreakerTopology>
            <iidm:generator id="GEN-1629" energySource="OTHER" minP="140.0" maxP="700.0" voltageRegulatorOn="true" targetP="450.03" targetV="0.95" targetQ="-42.82" bus="BUS-1629" connectableBus="BUS-1629" p="-449.99470217808454" q="42.808553297568075">
                <iidm:minMaxReactiveLimits minQ="-190.58" maxQ="231.39"/>
            </iidm:generator>
        </iidm:voltageLevel>
        <iidm:twoWindingsTransformer id="TWT-30-1629" r="0.0" x="1.9737000000000002E-4" g="0.0" b="0.0" ratedU1="1.092105" ratedU2="1.0" bus1="BUS-30" connectableBus1="BUS-30" voltageLevelId1="VL-30" bus2="BUS-1629" connectableBus2="BUS-1629" voltageLevelId2="VL-1629" p1="-449.99469398913476" q1="87.49351425605653" p2="449.99469398913476" q2="-42.808553297568075">
            <iidm:apparentPowerLimits1 permanentLimit="550.0">
                <iidm:temporaryLimit name="RateB" acceptableDuration="1200" value="550.0"/>
                <iidm:temporaryLimit name="RateC" acceptableDuration="60" value="550.0"/>
            </iidm:apparentPowerLimits1>
        </iidm:twoWindingsTransformer>
    </iidm:substation>
    <iidm:substation id="SUB-407">
        <iidm:voltageLevel id="VL-31" nominalV="1.0" topologyKind="BUS_BREAKER">
            <iidm:busBreakerTopology>
                <iidm:bus id="BUS-31" v="1.0489584900870386" angle="-4.98928025681623"/>
            </iidm:busBreakerTopology>
            <iidm:load id="LOAD-31" loadType="UNDEFINED" p0="21.7" q0="0.9" bus="BUS-31" connectableBus="BUS-31" p="21.7" q="0.9"/>
        </iidm:voltageLevel>
    </iidm:substation>
    <iidm:substation id="SUB-405">
        <iidm:voltageLevel id="VL-33" nominalV="1.0" topologyKind="BUS_BREAKER">
            <iidm:busBreakerTopology>
                <iidm:bus id="BUS-33" v="1.0330138617169926" angle="-5.585945455045572"/>
            </iidm:busBreakerTopology>
            <iidm:load id="LOAD-33" loadType="UNDEFINED" p0="68.9" q0="2.6" bus="BUS-33" connectableBus="BUS-33" p="68.9" q="2.6"/>
        </iidm:voltageLevel>
    </iidm:substation>
    <iidm:substation id="SUB-404">
        <iidm:voltageLevel id="VL-34" nominalV="1.0" topologyKind="BUS_BREAKER">
            <iidm:busBreakerTopology>
                <iidm:bus id="BUS-34" v="1.043083670809916" angle="-40.70077018212326"/>
            </iidm:busBreakerTopology>
            <iidm:load id="LOAD-34" loadType="UNDEFINED" p0="50.6" q0="12.7" bus="BUS-34" connectableBus="BUS-34" p="50.6" q="12.7"/>
        </iidm:voltageLevel>
    </iidm:substation>
    <iidm:substation id="SUB-403">
        <iidm:voltageLevel id="VL-35" nominalV="1.0" topologyKind="BUS_BREAKER">
            <iidm:busBreakerTopology>
                <iidm:bus id="BUS-35" v="1.0232224695630943" angle="-21.67334615712065"/>
            </iidm:busBreakerTopology>
            <iidm:load id="LOAD-35" loadType="UNDEFINED" p0="17.0" q0="2.1" bus="BUS-35" connectableBus="BUS-35" p="17.0" q="2.1"/>
        </iidm:voltageLevel>
    </iidm:substation>
    <iidm:substation id="SUB-401">
        <iidm:voltageLevel id="VL-36" nominalV="1.0" topologyKind="BUS_BREAKER">
            <iidm:busBreakerTopology>
                <iidm:bus id="BUS-36" v="1.0625285583096715" angle="-30.71784645412468"/>
            </iidm:busBreakerTopology>
            <iidm:load id="LOAD-36" loadType="UNDEFINED" p0="38.2" q0="6.3" bus="BUS-36" connectableBus="BUS-36" p="38.2" q="6.3"/>
        </iidm:voltageLevel>
        <iidm:voltageLevel id="VL-37" nominalV="1.0" topologyKind="BUS_BREAKER">
            <iidm:busBreakerTopology>
                <iidm:bus id="BUS-37" v="1.0700224042053652" angle="-28.290544034238664"/>
            </iidm:busBreakerTopology>
        </iidm:voltageLevel>
        <iidm:twoWindingsTransformer id="TWT-36-37" r="3.32E-6" x="2.5E-4" g="0.0" b="0.0" ratedU1="1.001" ratedU2="1.0" bus1="BUS-36" connectableBus1="BUS-36" voltageLevelId1="VL-36" bus2="BUS-37" connectableBus2="BUS-37" voltageLevelId2="VL-37" p1="-192.8056286522872" q1="-29.687966317403546" p2="192.91776364112917" q2="38.131866079604336">
            <iidm:apparentPowerLimits1 permanentLimit="1187.0">
                <iidm:temporaryLimit name="RateB" acceptableDuration="1200" value="1187.0"/>
                <iidm:temporaryLimit name="RateC" acceptableDuration="60" value="1187.0"/>
            </iidm:apparentPowerLimits1>
        </iidm:twoWindingsTransformer>
    </iidm:substation>
    <iidm:substation id="SUB-398">
        <iidm:voltageLevel id="VL-38" nominalV="1.0" topologyKind="BUS_BREAKER">
            <iidm:busBreakerTopology>
                <iidm:bus id="BUS-38" v="1.0438439505511468" angle="-38.11236610264712"/>
            </iidm:busBreakerTopology>
            <iidm:load id="LOAD-38" loadType="UNDEFINED" p0="89.0" q0="9.6" bus="BUS-38" connectableBus="BUS-38" p="89.0" q="9.6"/>
        </iidm:voltageLevel>
    </iidm:substation>
    <iidm:substation id="SUB-397">
        <iidm:voltageLevel id="VL-2050" nominalV="1.0" topologyKind="BUS_BREAKER">
            <iidm:busBreakerTopology>
                <iidm:bus id="BUS-2050" v="1.0250379357658732" angle="-43.09647317206717"/>
            </iidm:busBreakerTopology>
            <iidm:shunt id="SHUNT-2050" sectionCount="1" voltageRegulatorOn="false" bus="BUS-2050" connectableBus="BUS-2050" q="67.2449772645864">
                <iidm:shuntLinearModel bPerSection="-64.0" maximumSectionCount="1"/>
            </iidm:shunt>
        </iidm:voltageLevel>
        <iidm:voltageLevel id="VL-39" nominalV="1.0" topologyKind="BUS_BREAKER">
            <iidm:busBreakerTopology>
                <iidm:bus id="BUS-39" v="1.0289372814004527" angle="-42.27342510336312"/>
            </iidm:busBreakerTopology>
            <iidm:load id="LOAD-39" loadType="UNDEFINED" p0="70.9" q0="-2.3" bus="BUS-39" connectableBus="BUS-39" p="70.9" q="-2.3"/>
        </iidm:voltageLevel>
        <iidm:voltageLevel id="VL-1551" nominalV="1.0" topologyKind="BUS_BREAKER">
            <iidm:busBreakerTopology>
                <iidm:bus id="BUS-1551" v="1.0342004152575015" angle="-43.16469533344666"/>
            </iidm:busBreakerTopology>
        </iidm:voltageLevel>
        <iidm:voltageLevel id="VL-1600" nominalV="1.0" topologyKind="BUS_BREAKER">
            <iidm:busBreakerTopology>
                <iidm:bus id="BUS-1600" v="1.028681637953616" angle="-43.235473361581434"/>
            </iidm:busBreakerTopology>
        </iidm:voltageLevel>
        <iidm:twoWindingsTransformer id="TWT-2050-1551" r="1.787E-5" x="8.469500000000001E-4" g="0.0" b="0.0" ratedU1="1.05042" ratedU2="1.0" bus1="BUS-2050" connectableBus1="BUS-2050" voltageLevelId1="VL-2050" bus2="BUS-1551" connectableBus2="BUS-1551" voltageLevelId2="VL-1551" p1="1.8959428185417746E-14" q1="-67.2449772645863" p2="0.08485752130394135" q2="71.26680589739752"/>
        <iidm:twoWindingsTransformer id="TWT-39-1551" r="1.45E-6" x="-6.302E-5" g="0.0" b="0.0" ratedU1="1.0" ratedU2="1.0" bus1="BUS-39" connectableBus1="BUS-39" voltageLevelId1="VL-39" bus2="BUS-1551" connectableBus2="BUS-1551" voltageLevelId2="VL-1551" p1="-264.44444236656693" q1="77.80459833744644" p2="264.5485097752589" q2="-82.32758323076574">
            <iidm:apparentPowerLimits1 permanentLimit="1186.0">
                <iidm:temporaryLimit name="RateB" acceptableDuration="1200" value="1186.0"/>
                <iidm:temporaryLimit name="RateC" acceptableDuration="60" value="1186.0"/>
            </iidm:apparentPowerLimits1>
        </iidm:twoWindingsTransformer>
        <iidm:twoWindingsTransformer id="TWT-39-1600" r="1.25E-6" x="-6.787E-5" g="0.0" b="0.0" ratedU1="1.0" ratedU2="1.0" bus1="BUS-39" connectableBus1="BUS-39" voltageLevelId1="VL-39" bus2="BUS-1600" connectableBus2="BUS-1600" voltageLevelId2="VL-1600" p1="-261.64532860074894" q1="-10.892897237458216" p2="261.7262960141936" q2="6.496690556694221">
            <iidm:apparentPowerLimits1 permanentLimit="1187.0">
                <iidm:temporaryLimit name="RateB" acceptableDuration="1200" value="1187.0"/>
                <iidm:temporaryLimit name="RateC" acceptableDuration="60" value="1187.0"/>
            </iidm:apparentPowerLimits1>
        </iidm:twoWindingsTransformer>
    </iidm:substation>
    <iidm:substation id="SUB-443">
        <iidm:voltageLevel id="VL-40" nominalV="1.0" topologyKind="BUS_BREAKER">
            <iidm:busBreakerTopology>
                <iidm:bus id="BUS-40" v="1.0344562073604104" angle="-38.72278163135538"/>
            </iidm:busBreakerTopology>
            <iidm:load id="LOAD-40" loadType="UNDEFINED" p0="136.2" q0="-10.7" bus="BUS-40" connectableBus="BUS-40" p="136.2" q="-10.7"/>
        </iidm:voltageLevel>
    </iidm:substation>
    <iidm:substation id="SUB-441">
        <iidm:voltageLevel id="VL-41" nominalV="1.0" topologyKind="BUS_BREAKER">
            <iidm:busBreakerTopology>
                <iidm:bus id="BUS-41" v="1.0416513817783315" angle="-27.28296473533801"/>
            </iidm:busBreakerTopology>
            <iidm:load id="LOAD-41" loadType="UNDEFINED" p0="64.6" q0="17.3" bus="BUS-41" connectableBus="BUS-41" p="64.6" q="17.3"/>
        </iidm:voltageLevel>
    </iidm:substation>
    <iidm:substation id="SUB-438">
        <iidm:voltageLevel id="VL-42" nominalV="1.0" topologyKind="BUS_BREAKER">
            <iidm:busBreakerTopology>
                <iidm:bus id="BUS-42" v="1.0267759342480807" angle="-46.73298709666579"/>
            </iidm:busBreakerTopology>
            <iidm:load id="LOAD-42" loadType="UNDEFINED" p0="13.4" q0="3.3" bus="BUS-42" connectableBus="BUS-42" p="13.4" q="3.3"/>
        </iidm:voltageLevel>
    </iidm:substation>
    <iidm:substation id="SUB-436">
        <iidm:voltageLevel id="VL-43" nominalV="1.0" topologyKind="BUS_BREAKER">
            <iidm:busBreakerTopology>
                <iidm:bus id="BUS-43" v="1.0266015841201817" angle="-46.77710814526196"/>
            </iidm:busBreakerTopology>
            <iidm:load id="LOAD-43" loadType="UNDEFINED" p0="33.3" q0="4.7" bus="BUS-43" connectableBus="BUS-43" p="33.3" q="4.7"/>
        </iidm:voltageLevel>
    </iidm:substation>
    <iidm:substation id="SUB-434">
        <iidm:voltageLevel id="VL-44" nominalV="1.0" topologyKind="BUS_BREAKER">
            <iidm:busBreakerTopology>
                <iidm:bus id="BUS-44" v="1.0549455194044737" angle="-26.11912893118083"/>
            </iidm:busBreakerTopology>
            <iidm:load id="LOAD-44" loadType="UNDEFINED" p0="211.6" q0="-1.3" bus="BUS-44" connectableBus="BUS-44" p="211.60000000000002" q="-1.3"/>
        </iidm:voltageLevel>
    </iidm:substation>
    <iidm:substation id="SUB-433">
        <iidm:voltageLevel id="VL-45" nominalV="1.0" topologyKind="BUS_BREAKER">
            <iidm:busBreakerTopology>
                <iidm:bus id="BUS-45" v="1.0480852007288983" angle="-38.841233708209764"/>
            </iidm:busBreakerTopology>
            <iidm:load id="LOAD-45" loadType="UNDEFINED" p0="92.1" q0="-9.1" bus="BUS-45" connectableBus="BUS-45" p="92.1" q="-9.1"/>
        </iidm:voltageLevel>
    </iidm:substation>
    <iidm:substation id="SUB-432">
        <iidm:voltageLevel id="VL-46" nominalV="1.0" topologyKind="BUS_BREAKER">
            <iidm:busBreakerTopology>
                <iidm:bus id="BUS-46" v="1.0435066624002318" angle="-7.769351059360439"/>
            </iidm:busBreakerTopology>
            <iidm:generator id="GEN-46" energySource="OTHER" minP="6.0" maxP="30.0" voltageRegulatorOn="true" targetP="28.0" targetV="1.038" targetQ="-4.0" bus="BUS-46" connectableBus="BUS-46" p="-27.99848723620363" q="4.0">
                <iidm:minMaxReactiveLimits minQ="-4.0" maxQ="10.0"/>
            </iidm:generator>
        </iidm:voltageLevel>
    </iidm:substation>
    <iidm:substation id="SUB-431">
        <iidm:voltageLevel id="VL-47" nominalV="1.0" topologyKind="BUS_BREAKER">
            <iidm:busBreakerTopology>
                <iidm:bus id="BUS-47" v="1.026375375320542" angle="-41.24260930041686"/>
            </iidm:busBreakerTopology>
        </iidm:voltageLevel>
    </iidm:substation>
    <iidm:substation id="SUB-430">
        <iidm:voltageLevel id="VL-48" nominalV="1.0" topologyKind="BUS_BREAKER">
            <iidm:busBreakerTopology>
                <iidm:bus id="BUS-48" v="1.0263751619368482" angle="-41.24260809720236"/>
            </iidm:busBreakerTopology>
        </iidm:voltageLevel>
    </iidm:substation>
    <iidm:substation id="SUB-429">
        <iidm:voltageLevel id="VL-49" nominalV="1.0" topologyKind="BUS_BREAKER">
            <iidm:busBreakerTopology>
                <iidm:bus id="BUS-49" v="1.0263739324420493" angle="-41.24260116440473"/>
            </iidm:busBreakerTopology>
            <iidm:load id="LOAD-49" loadType="UNDEFINED" p0="63.7" q0="84.5" bus="BUS-49" connectableBus="BUS-49" p="63.7" q="84.5"/>
            <iidm:shunt id="SHUNT-49" sectionCount="1" voltageRegulatorOn="false" bus="BUS-49" connectableBus="BUS-49" q="84.27547593572453">
                <iidm:shuntLinearModel bPerSection="-80.0" maximumSectionCount="1"/>
            </iidm:shunt>
        </iidm:voltageLevel>
    </iidm:substation>
    <iidm:substation id="SUB-716">
        <iidm:voltageLevel id="VL-50" nominalV="1.0" topologyKind="BUS_BREAKER">
            <iidm:busBreakerTopology>
                <iidm:bus id="BUS-50" v="1.0364353633051107" angle="-36.15876067132351"/>
            </iidm:busBreakerTopology>
            <iidm:load id="LOAD-50" loadType="UNDEFINED" p0="10.4" q0="6.6" bus="BUS-50" connectableBus="BUS-50" p="10.4" q="6.6"/>
        </iidm:voltageLevel>
    </iidm:substation>
    <iidm:substation id="SUB-715">
        <iidm:voltageLevel id="VL-51" nominalV="1.0" topologyKind="BUS_BREAKER">
            <iidm:busBreakerTopology>
                <iidm:bus id="BUS-51" v="1.0561400919516866" angle="-17.397508445255806"/>
            </iidm:busBreakerTopology>
        </iidm:voltageLevel>
        <iidm:voltageLevel id="VL-1844" nominalV="1.0" topologyKind="BUS_BREAKER">
            <iidm:busBreakerTopology>
                <iidm:bus id="BUS-1844" v="0.9079233459927448" angle="-8.578404427587122"/>
            </iidm:busBreakerTopology>
            <iidm:generator id="GEN-1844" energySource="OTHER" minP="5.4" maxP="27.0" voltageRegulatorOn="true" targetP="26.0" targetV="0.885" targetQ="-13.69" bus="BUS-1844" connectableBus="BUS-1844" p="-25.998638512583263" q="15.380000000000003">
                <iidm:minMaxReactiveLimits minQ="-15.38" maxQ="24.62"/>
            </iidm:generator>
        </iidm:voltageLevel>
        <iidm:twoWindingsTransformer id="TWT-51-1844" r="0.0" x="0.0054184" g="0.0" b="0.0" ratedU1="1.044444" ratedU2="1.0" bus1="BUS-51" connectableBus1="BUS-51" voltageLevelId1="VL-51" bus2="BUS-1844" connectableBus2="BUS-1844" voltageLevelId2="VL-1844" p1="-25.97766279253868" q1="21.27673365739601" p2="25.97766279253868" q2="-15.301847308941891"/>
    </iidm:substation>
    <iidm:substation id="SUB-714">
        <iidm:voltageLevel id="VL-52" nominalV="1.0" topologyKind="BUS_BREAKER">
            <iidm:busBreakerTopology>
                <iidm:bus id="BUS-52" v="1.0190586155306773" angle="-46.95330849101587"/>
            </iidm:busBreakerTopology>
            <iidm:load id="LOAD-52" loadType="UNDEFINED" p0="68.7" q0="16.5" bus="BUS-52" connectableBus="BUS-52" p="68.7" q="16.5"/>
        </iidm:voltageLevel>
    </iidm:substation>
    <iidm:substation id="SUB-713">
        <iidm:voltageLevel id="VL-53" nominalV="1.0" topologyKind="BUS_BREAKER">
            <iidm:busBreakerTopology>
                <iidm:bus id="BUS-53" v="1.0103297884408677" angle="-45.33475216083266"/>
            </iidm:busBreakerTopology>
            <iidm:load id="LOAD-53" loadType="UNDEFINED" p0="101.2" q0="15.9" bus="BUS-53" connectableBus="BUS-53" p="101.2" q="15.9"/>
        </iidm:voltageLevel>
        <iidm:voltageLevel id="VL-54" nominalV="1.0" topologyKind="BUS_BREAKER">
            <iidm:busBreakerTopology>
                <iidm:bus id="BUS-54" v="1.0136944249707835" angle="-43.241399924720795"/>
            </iidm:busBreakerTopology>
        </iidm:voltageLevel>
        <iidm:twoWindingsTransformer id="TWT-53-54" r="6.65E-6" x="4.8338E-4" g="0.0" b="0.0" ratedU1="0.996016" ratedU2="1.0" bus1="BUS-53" connectableBus1="BUS-53" voltageLevelId1="VL-53" bus2="BUS-54" connectableBus2="BUS-54" voltageLevelId2="VL-54" p1="-77.64932744606736" q1="3.907757724070838" p2="77.68839371125004" q2="-1.0680808422357138">
            <iidm:apparentPowerLimits1 permanentLimit="606.0">
                <iidm:temporaryLimit name="RateB" acceptableDuration="1200" value="606.0"/>
                <iidm:temporaryLimit name="RateC" acceptableDuration="60" value="606.0"/>
            </iidm:apparentPowerLimits1>
        </iidm:twoWindingsTransformer>
        <iidm:twoWindingsTransformer id="TWT-53-54#0" r="7.83E-6" x="3.9612E-4" g="0.0" b="0.0" ratedU1="0.996016" ratedU2="1.0" bus1="BUS-53" connectableBus1="BUS-53" voltageLevelId1="VL-53" bus2="BUS-54" connectableBus2="BUS-54" voltageLevelId2="VL-54" p1="-94.71455132772326" q1="5.337218110776596" p2="94.78303363067167" q2="-1.872695780743951">
            <iidm:apparentPowerLimits1 permanentLimit="606.0">
                <iidm:temporaryLimit name="RateB" acceptableDuration="1200" value="606.0"/>
                <iidm:temporaryLimit name="RateC" acceptableDuration="60" value="606.0"/>
            </iidm:apparentPowerLimits1>
        </iidm:twoWindingsTransformer>
    </iidm:substation>
    <iidm:substation id="SUB-712">
        <iidm:voltageLevel id="VL-55" nominalV="1.0" topologyKind="BUS_BREAKER">
            <iidm:busBreakerTopology>
                <iidm:bus id="BUS-55" v="1.0272897442437534" angle="-4.995927586859273"/>
            </iidm:busBreakerTopology>
            <iidm:load id="LOAD-55" loadType="UNDEFINED" p0="28.9" q0="10.6" bus="BUS-55" connectableBus="BUS-55" p="28.9" q="10.6"/>
        </iidm:voltageLevel>
    </iidm:substation>
    <iidm:substation id="SUB-710">
        <iidm:voltageLevel id="VL-56" nominalV="1.0" topologyKind="BUS_BREAKER">
            <iidm:busBreakerTopology>
                <iidm:bus id="BUS-56" v="1.0274794649938968" angle="-4.997344693890448"/>
            </iidm:busBreakerTopology>
            <iidm:load id="LOAD-56" loadType="UNDEFINED" p0="28.2" q0="2.1" bus="BUS-56" connectableBus="BUS-56" p="28.199999999999996" q="2.1"/>
        </iidm:voltageLevel>
    </iidm:substation>
    <iidm:substation id="SUB-1377">
        <iidm:voltageLevel id="VL-1827" nominalV="1.0" topologyKind="BUS_BREAKER">
            <iidm:busBreakerTopology>
                <iidm:bus id="BUS-1827" v="1.0422990238386174" angle="-34.468947489274335"/>
            </iidm:busBreakerTopology>
            <iidm:load id="LOAD-1827" loadType="UNDEFINED" p0="109.6" q0="-12.9" bus="BUS-1827" connectableBus="BUS-1827" p="109.59999999999998" q="-12.9"/>
        </iidm:voltageLevel>
    </iidm:substation>
    <iidm:substation id="SUB-708">
        <iidm:voltageLevel id="VL-57" nominalV="1.0" topologyKind="BUS_BREAKER">
            <iidm:busBreakerTopology>
                <iidm:bus id="BUS-57" v="1.0537281494694002" angle="-20.321775184738886"/>
            </iidm:busBreakerTopology>
            <iidm:load id="LOAD-57" loadType="UNDEFINED" p0="27.3" q0="-10.9" bus="BUS-57" connectableBus="BUS-57" p="27.3" q="-10.9"/>
        </iidm:voltageLevel>
    </iidm:substation>
    <iidm:substation id="SUB-706">
        <iidm:voltageLevel id="VL-58" nominalV="1.0" topologyKind="BUS_BREAKER">
            <iidm:busBreakerTopology>
                <iidm:bus id="BUS-58" v="1.0422085807049848" angle="-7.981351004001066"/>
            </iidm:busBreakerTopology>
            <iidm:generator id="GEN-58" energySource="OTHER" minP="1.2" maxP="6.0" voltageRegulatorOn="true" targetP="0.0" targetV="1.037" targetQ="0.0" connectableBus="BUS-58">
                <iidm:minMaxReactiveLimits minQ="1.9" maxQ="2.0"/>
            </iidm:generator>
        </iidm:voltageLevel>
    </iidm:substation>
    <iidm:substation id="SUB-704">
        <iidm:voltageLevel id="VL-59" nominalV="1.0" topologyKind="BUS_BREAKER">
            <iidm:busBreakerTopology>
                <iidm:bus id="BUS-59" v="1.02347335496619" angle="-1.8819625238025288"/>
            </iidm:busBreakerTopology>
            <iidm:load id="LOAD-59" loadType="UNDEFINED" p0="36.8" q0="20.3" bus="BUS-59" connectableBus="BUS-59" p="36.8" q="20.3"/>
        </iidm:voltageLevel>
    </iidm:substation>
    <iidm:substation id="SUB-738">
        <iidm:voltageLevel id="VL-60" nominalV="1.0" topologyKind="BUS_BREAKER">
            <iidm:busBreakerTopology>
                <iidm:bus id="BUS-60" v="1.0233019423924754" angle="-1.8798777098688222"/>
            </iidm:busBreakerTopology>
            <iidm:load id="LOAD-60" loadType="UNDEFINED" p0="36.5" q0="30.8" bus="BUS-60" connectableBus="BUS-60" p="36.5" q="30.8"/>
        </iidm:voltageLevel>
    </iidm:substation>
    <iidm:substation id="SUB-737">
        <iidm:voltageLevel id="VL-61" nominalV="1.0" topologyKind="BUS_BREAKER">
            <iidm:busBreakerTopology>
                <iidm:bus id="BUS-61" v="1.0252751928497534" angle="-2.714289685176068"/>
            </iidm:busBreakerTopology>
        </iidm:voltageLevel>
        <iidm:voltageLevel id="VL-1630" nominalV="1.0" topologyKind="BUS_BREAKER">
            <iidm:busBreakerTopology>
                <iidm:bus id="BUS-1630" v="0.928" angle="5.2444830518393974"/>
            </iidm:busBreakerTopology>
            <iidm:generator id="GEN-1630" energySource="OTHER" minP="17.2" maxP="86.0" voltageRegulatorOn="true" targetP="83.0" targetV="0.928" targetQ="8.77" bus="BUS-1630" connectableBus="BUS-1630" p="-82.99566341045038" q="-9.185471767786781">
                <iidm:minMaxReactiveLimits minQ="-8.5" maxQ="43.86"/>
            </iidm:generator>
        </iidm:voltageLevel>
        <iidm:voltageLevel id="VL-1631" nominalV="1.0" topologyKind="BUS_BREAKER">
            <iidm:busBreakerTopology>
                <iidm:bus id="BUS-1631" v="0.93" angle="-1.280228787618727"/>
            </iidm:busBreakerTopology>
            <iidm:generator id="GEN-1631" energySource="OTHER" minP="9.8" maxP="49.0" voltageRegulatorOn="true" targetP="9.8" targetV="0.93" targetQ="3.09" bus="BUS-1631" connectableBus="BUS-1631" p="-9.8" q="-3.2002708848559402">
                <iidm:minMaxReactiveLimits minQ="-9.73" maxQ="22.19"/>
            </iidm:generator>
        </iidm:voltageLevel>
        <iidm:twoWindingsTransformer id="TWT-61-1630" r="0.0" x="0.00142857" g="0.0" b="0.0" ratedU1="1.111111" ratedU2="1.0" bus1="BUS-61" connectableBus1="BUS-61" voltageLevelId1="VL-61" bus2="BUS-1630" connectableBus2="BUS-1630" voltageLevelId2="VL-1630" p1="-82.99566309287765" q1="2.3810725167103577" p2="82.99566309287766" q2="9.185471767786781"/>
        <iidm:twoWindingsTransformer id="TWT-61-1631" r="0.0" x="0.0021914900000000004" g="0.0" b="0.0" ratedU1="1.111111" ratedU2="1.0" bus1="BUS-61" connectableBus1="BUS-61" voltageLevelId1="VL-61" bus2="BUS-1631" connectableBus2="BUS-1631" voltageLevelId2="VL-1631" p1="-9.799999962852853" q1="-2.930973445764142" p2="9.799999962852851" q2="3.2002708848559402"/>
    </iidm:substation>
    <iidm:substation id="SUB-736">
        <iidm:voltageLevel id="VL-62" nominalV="1.0" topologyKind="BUS_BREAKER">
            <iidm:busBreakerTopology>
                <iidm:bus id="BUS-62" v="1.0283867707826793" angle="-44.82235945938085"/>
            </iidm:busBreakerTopology>
            <iidm:load id="LOAD-62" loadType="UNDEFINED" p0="8.4" q0="-0.3" bus="BUS-62" connectableBus="BUS-62" p="8.4" q="-0.3"/>
        </iidm:voltageLevel>
    </iidm:substation>
    <iidm:substation id="SUB-735">
        <iidm:voltageLevel id="VL-63" nominalV="1.0" topologyKind="BUS_BREAKER">
            <iidm:busBreakerTopology>
                <iidm:bus id="BUS-63" v="1.0674718060896953" angle="-26.38962720679522"/>
            </iidm:busBreakerTopology>
            <iidm:load id="LOAD-63" loadType="UNDEFINED" p0="13.2" q0="-6.3" bus="BUS-63" connectableBus="BUS-63" p="13.200000000000001" q="-6.3"/>
        </iidm:voltageLevel>
    </iidm:substation>
    <iidm:substation id="SUB-734">
        <iidm:voltageLevel id="VL-64" nominalV="1.0" topologyKind="BUS_BREAKER">
            <iidm:busBreakerTopology>
                <iidm:bus id="BUS-64" v="1.0223668516487245" angle="-40.45543896424999"/>
            </iidm:busBreakerTopology>
            <iidm:load id="LOAD-64" loadType="UNDEFINED" p0="13.2" q0="3.3" bus="BUS-64" connectableBus="BUS-64" p="13.200000000000001" q="3.3"/>
        </iidm:voltageLevel>
    </iidm:substation>
    <iidm:substation id="SUB-733">
        <iidm:voltageLevel id="VL-65" nominalV="1.0" topologyKind="BUS_BREAKER">
            <iidm:busBreakerTopology>
                <iidm:bus id="BUS-65" v="1.0480193843453098" angle="-36.51013148803841"/>
            </iidm:busBreakerTopology>
            <iidm:load id="LOAD-65" loadType="UNDEFINED" p0="22.7" q0="2.5" bus="BUS-65" connectableBus="BUS-65" p="22.7" q="2.5"/>
        </iidm:voltageLevel>
    </iidm:substation>
    <iidm:substation id="SUB-732">
        <iidm:voltageLevel id="VL-66" nominalV="1.0" topologyKind="BUS_BREAKER">
            <iidm:busBreakerTopology>
                <iidm:bus id="BUS-66" v="1.0585359917424055" angle="-17.665908428763167"/>
            </iidm:busBreakerTopology>
            <iidm:load id="LOAD-66" loadType="UNDEFINED" p0="11.4" q0="-9.7" bus="BUS-66" connectableBus="BUS-66" p="11.4" q="-9.7"/>
        </iidm:voltageLevel>
    </iidm:substation>
    <iidm:substation id="SUB-731">
        <iidm:voltageLevel id="VL-67" nominalV="1.0" topologyKind="BUS_BREAKER">
            <iidm:busBreakerTopology>
                <iidm:bus id="BUS-67" v="1.0389032462458783" angle="-32.659639191930516"/>
            </iidm:busBreakerTopology>
            <iidm:load id="LOAD-67" loadType="UNDEFINED" p0="10.2" q0="-1.3" bus="BUS-67" connectableBus="BUS-67" p="10.2" q="-1.3"/>
        </iidm:voltageLevel>
    </iidm:substation>
    <iidm:substation id="SUB-658">
        <iidm:voltageLevel id="VL-68" nominalV="1.0" topologyKind="BUS_BREAKER">
            <iidm:busBreakerTopology>
                <iidm:bus id="BUS-68" v="1.029568977764206" angle="-46.247043821281615"/>
            </iidm:busBreakerTopology>
        </iidm:voltageLevel>
        <iidm:voltageLevel id="VL-69" nominalV="1.0" topologyKind="BUS_BREAKER">
            <iidm:busBreakerTopology>
                <iidm:bus id="BUS-69" v="1.02355218415157" angle="-46.48597671668635"/>
            </iidm:busBreakerTopology>
        </iidm:voltageLevel>
        <iidm:voltageLevel id="VL-70" nominalV="1.0" topologyKind="BUS_BREAKER">
            <iidm:busBreakerTopology>
                <iidm:bus id="BUS-70" v="1.0317566883272007" angle="-44.42680578501928"/>
            </iidm:busBreakerTopology>
        </iidm:voltageLevel>
        <iidm:twoWindingsTransformer id="TWT-68-70" r="3.4600000000000003E-6" x="2.5139000000000004E-4" g="0.0" b="0.0" ratedU1="1.0" ratedU2="1.0" bus1="BUS-68" connectableBus1="BUS-68" voltageLevelId1="VL-68" bus2="BUS-70" connectableBus2="BUS-70" voltageLevelId2="VL-70" p1="-134.28853396818624" q1="-4.97929563924627" p2="134.34747798810113" q2="9.261936438845256">
            <iidm:apparentPowerLimits1 permanentLimit="1186.0">
                <iidm:temporaryLimit name="RateB" acceptableDuration="1200" value="1186.0"/>
                <iidm:temporaryLimit name="RateC" acceptableDuration="60" value="1186.0"/>
            </iidm:apparentPowerLimits1>
        </iidm:twoWindingsTransformer>
        <iidm:twoWindingsTransformer id="TWT-68-70#0" r="3.39E-6" x="2.4931E-4" g="0.0" b="0.0" ratedU1="1.0" ratedU2="1.0" bus1="BUS-68" connectableBus1="BUS-68" voltageLevelId1="VL-68" bus2="BUS-70" connectableBus2="BUS-70" voltageLevelId2="VL-70" p1="-135.40837925387456" q1="-5.043315761940266" p2="135.4670986959358" q2="9.361706352015581">
            <iidm:apparentPowerLimits1 permanentLimit="1186.0">
                <iidm:temporaryLimit name="RateB" acceptableDuration="1200" value="1186.0"/>
                <iidm:temporaryLimit name="RateC" acceptableDuration="60" value="1186.0"/>
            </iidm:apparentPowerLimits1>
        </iidm:twoWindingsTransformer>
        <iidm:twoWindingsTransformer id="TWT-69-70" r="3.39E-6" x="2.4931E-4" g="0.0" b="0.0" ratedU1="1.0" ratedU2="1.0" bus1="BUS-69" connectableBus1="BUS-69" voltageLevelId1="VL-69" bus2="BUS-70" connectableBus2="BUS-70" voltageLevelId2="VL-70" p1="-152.59583531074335" q1="-28.873659904438675" p2="152.6738797936571" q2="34.61326758446708">
            <iidm:apparentPowerLimits1 permanentLimit="1186.0">
                <iidm:temporaryLimit name="RateB" acceptableDuration="1200" value="1186.0"/>
                <iidm:temporaryLimit name="RateC" acceptableDuration="60" value="1186.0"/>
            </iidm:apparentPowerLimits1>
        </iidm:twoWindingsTransformer>
    </iidm:substation>
    <iidm:substation id="SUB-657">
        <iidm:voltageLevel id="VL-71" nominalV="1.0" topologyKind="BUS_BREAKER">
            <iidm:busBreakerTopology>
                <iidm:bus id="BUS-71" v="1.0366192916090857" angle="-41.013117952633415"/>
            </iidm:busBreakerTopology>
            <iidm:load id="LOAD-71" loadType="UNDEFINED" p0="39.2" q0="2.8" bus="BUS-71" connectableBus="BUS-71" p="39.2" q="2.8"/>
        </iidm:voltageLevel>
    </iidm:substation>
    <iidm:substation id="SUB-656">
        <iidm:voltageLevel id="VL-72" nominalV="1.0" topologyKind="BUS_BREAKER">
            <iidm:busBreakerTopology>
                <iidm:bus id="BUS-72" v="1.0356059886350415" angle="-39.9875436544086"/>
            </iidm:busBreakerTopology>
            <iidm:load id="LOAD-72" loadType="UNDEFINED" p0="19.3" q0="3.3" bus="BUS-72" connectableBus="BUS-72" p="19.3" q="3.3"/>
            <iidm:shunt id="SHUNT-72" sectionCount="1" voltageRegulatorOn="false" bus="BUS-72" connectableBus="BUS-72" q="85.79838109574095">
                <iidm:shuntLinearModel bPerSection="-80.0" maximumSectionCount="1"/>
            </iidm:shunt>
        </iidm:voltageLevel>
    </iidm:substation>
    <iidm:substation id="SUB-655">
        <iidm:voltageLevel id="VL-73" nominalV="1.0" topologyKind="BUS_BREAKER">
            <iidm:busBreakerTopology>
                <iidm:bus id="BUS-73" v="1.0434692115854867" angle="-5.33783388608078"/>
            </iidm:busBreakerTopology>
        </iidm:voltageLevel>
        <iidm:voltageLevel id="VL-1846" nominalV="1.0" topologyKind="BUS_BREAKER">
            <iidm:busBreakerTopology>
                <iidm:bus id="BUS-1846" v="1.034" angle="0.5154317959153951"/>
            </iidm:busBreakerTopology>
            <iidm:generator id="GEN-1846" energySource="OTHER" minP="6.4" maxP="32.0" voltageRegulatorOn="true" targetP="30.0" targetV="1.034" targetQ="-1.12" bus="BUS-1846" connectableBus="BUS-1846" p="-29.998386385283865" q="1.1357577122093745">
                <iidm:minMaxReactiveLimits minQ="-8.36" maxQ="8.36"/>
            </iidm:generator>
        </iidm:voltageLevel>
        <iidm:voltageLevel id="VL-1632" nominalV="1.0" topologyKind="BUS_BREAKER">
            <iidm:busBreakerTopology>
                <iidm:bus id="BUS-1632" v="1.034" angle="0.5154317959153951"/>
            </iidm:busBreakerTopology>
            <iidm:generator id="GEN-1632" energySource="OTHER" minP="6.4" maxP="32.0" voltageRegulatorOn="true" targetP="30.0" targetV="1.034" targetQ="-1.12" bus="BUS-1632" connectableBus="BUS-1632" p="-29.998386385283865" q="1.1357577122093745">
                <iidm:minMaxReactiveLimits minQ="-8.36" maxQ="8.36"/>
            </iidm:generator>
        </iidm:voltageLevel>
        <iidm:twoWindingsTransformer id="TWT-73-1846" r="0.0" x="0.00366794" g="0.0" b="0.0" ratedU1="1.0" ratedU2="1.0" bus1="BUS-73" connectableBus1="BUS-73" voltageLevelId1="VL-73" bus2="BUS-1846" connectableBus2="BUS-1846" voltageLevelId2="VL-1846" p1="-29.998385689060292" q1="4.227469474395897" p2="29.99838568906028" q2="-1.1357577122093745"/>
        <iidm:twoWindingsTransformer id="TWT-73-1632" r="0.0" x="0.00366794" g="0.0" b="0.0" ratedU1="1.0" ratedU2="1.0" bus1="BUS-73" connectableBus1="BUS-73" voltageLevelId1="VL-73" bus2="BUS-1632" connectableBus2="BUS-1632" voltageLevelId2="VL-1632" p1="-29.998385689060292" q1="4.227469474395897" p2="29.99838568906028" q2="-1.1357577122093745"/>
    </iidm:substation>
    <iidm:substation id="SUB-654">
        <iidm:voltageLevel id="VL-74" nominalV="1.0" topologyKind="BUS_BREAKER">
            <iidm:busBreakerTopology>
                <iidm:bus id="BUS-74" v="1.043478544867591" angle="-5.337150926066307"/>
            </iidm:busBreakerTopology>
        </iidm:voltageLevel>
        <iidm:voltageLevel id="VL-1847" nominalV="1.0" topologyKind="BUS_BREAKER">
            <iidm:busBreakerTopology>
                <iidm:bus id="BUS-1847" v="1.034" angle="0.5160622191647585"/>
            </iidm:busBreakerTopology>
            <iidm:generator id="GEN-1847" energySource="OTHER" minP="6.4" maxP="32.0" voltageRegulatorOn="true" targetP="30.0" targetV="1.034" targetQ="-1.06" bus="BUS-1847" connectableBus="BUS-1847" p="-29.998386385283865" q="1.1384025733535692">
                <iidm:minMaxReactiveLimits minQ="-8.57" maxQ="8.15"/>
            </iidm:generator>
        </iidm:voltageLevel>
        <iidm:voltageLevel id="VL-1848" nominalV="1.0" topologyKind="BUS_BREAKER">
            <iidm:busBreakerTopology>
                <iidm:bus id="BUS-1848" v="1.034" angle="0.5160622191647585"/>
            </iidm:busBreakerTopology>
            <iidm:generator id="GEN-1848" energySource="OTHER" minP="6.4" maxP="32.0" voltageRegulatorOn="true" targetP="30.0" targetV="1.034" targetQ="-1.06" bus="BUS-1848" connectableBus="BUS-1848" p="-29.998386385283865" q="1.1384025733535692">
                <iidm:minMaxReactiveLimits minQ="-8.57" maxQ="8.15"/>
            </iidm:generator>
        </iidm:voltageLevel>
        <iidm:twoWindingsTransformer id="TWT-74-1847" r="0.0" x="0.00366794" g="0.0" b="0.0" ratedU1="1.0" ratedU2="1.0" bus1="BUS-74" connectableBus1="BUS-74" voltageLevelId1="VL-74" bus2="BUS-1847" connectableBus2="BUS-1847" voltageLevelId2="VL-1847" p1="-29.99838568922901" q1="4.230134970604356" p2="29.99838568922901" q2="-1.1384025733535692"/>
        <iidm:twoWindingsTransformer id="TWT-74-1848" r="0.0" x="0.00366794" g="0.0" b="0.0" ratedU1="1.0" ratedU2="1.0" bus1="BUS-74" connectableBus1="BUS-74" voltageLevelId1="VL-74" bus2="BUS-1848" connectableBus2="BUS-1848" voltageLevelId2="VL-1848" p1="-29.99838568922901" q1="4.230134970604356" p2="29.99838568922901" q2="-1.1384025733535692"/>
    </iidm:substation>
    <iidm:substation id="SUB-653">
        <iidm:voltageLevel id="VL-75" nominalV="1.0" topologyKind="BUS_BREAKER">
            <iidm:busBreakerTopology>
                <iidm:bus id="BUS-75" v="1.0417705416021006" angle="-5.819378952549738"/>
            </iidm:busBreakerTopology>
            <iidm:load id="LOAD-75" loadType="UNDEFINED" p0="131.9" q0="3.2" bus="BUS-75" connectableBus="BUS-75" p="131.9" q="3.2"/>
        </iidm:voltageLevel>
    </iidm:substation>
    <iidm:substation id="SUB-652">
        <iidm:voltageLevel id="VL-76" nominalV="1.0" topologyKind="BUS_BREAKER">
            <iidm:busBreakerTopology>
                <iidm:bus id="BUS-76" v="1.0513610561528333" angle="-21.55493857016219"/>
            </iidm:busBreakerTopology>
        </iidm:voltageLevel>
        <iidm:voltageLevel id="VL-77" nominalV="1.0" topologyKind="BUS_BREAKER">
            <iidm:busBreakerTopology>
                <iidm:bus id="BUS-77" v="1.0479808105377961" angle="-16.655337808992677"/>
            </iidm:busBreakerTopology>
        </iidm:voltageLevel>
        <iidm:twoWindingsTransformer id="TWT-76-77" r="8.03E-6" x="4.2451999999999995E-4" g="0.0" b="0.0" ratedU1="0.996016" ratedU2="1.0" bus1="BUS-76" connectableBus1="BUS-76" voltageLevelId1="VL-76" bus2="BUS-77" connectableBus2="BUS-77" voltageLevelId2="VL-77" p1="-221.9448584187903" q1="32.581667038839555" p2="222.3075140299021" q2="-13.409243623002226">
            <iidm:apparentPowerLimits1 permanentLimit="600.0">
                <iidm:temporaryLimit name="RateB" acceptableDuration="1200" value="600.0"/>
                <iidm:temporaryLimit name="RateC" acceptableDuration="60" value="600.0"/>
            </iidm:apparentPowerLimits1>
        </iidm:twoWindingsTransformer>
    </iidm:substation>
    <iidm:substation id="SUB-650">
        <iidm:voltageLevel id="VL-78" nominalV="1.0" topologyKind="BUS_BREAKER">
            <iidm:busBreakerTopology>
                <iidm:bus id="BUS-78" v="1.051271114243873" angle="-21.604228687836308"/>
            </iidm:busBreakerTopology>
            <iidm:load id="LOAD-78" loadType="UNDEFINED" p0="94.6" q0="-1.9" bus="BUS-78" connectableBus="BUS-78" p="94.6" q="-1.9"/>
        </iidm:voltageLevel>
    </iidm:substation>
    <iidm:substation id="SUB-647">
        <iidm:voltageLevel id="VL-79" nominalV="1.0" topologyKind="BUS_BREAKER">
            <iidm:busBreakerTopology>
                <iidm:bus id="BUS-79" v="1.0233188582809971" angle="-40.22272757713288"/>
            </iidm:busBreakerTopology>
            <iidm:load id="LOAD-79" loadType="UNDEFINED" p0="-1.7" q0="-4.6" bus="BUS-79" connectableBus="BUS-79" p="-1.7000000000000002" q="-4.6"/>
        </iidm:voltageLevel>
    </iidm:substation>
    <iidm:substation id="SUB-688">
        <iidm:voltageLevel id="VL-80" nominalV="1.0" topologyKind="BUS_BREAKER">
            <iidm:busBreakerTopology>
                <iidm:bus id="BUS-80" v="1.0233190940541284" angle="-40.22681650150331"/>
            </iidm:busBreakerTopology>
            <iidm:load id="LOAD-80" loadType="UNDEFINED" p0="3.6" q0="-7.2" bus="BUS-80" connectableBus="BUS-80" p="3.6000000000000005" q="-7.2"/>
        </iidm:voltageLevel>
    </iidm:substation>
    <iidm:substation id="SUB-687">
        <iidm:voltageLevel id="VL-81" nominalV="1.0" topologyKind="BUS_BREAKER">
            <iidm:busBreakerTopology>
                <iidm:bus id="BUS-81" v="1.0321548028164769" angle="-41.44713977383458"/>
            </iidm:busBreakerTopology>
            <iidm:load id="LOAD-81" loadType="UNDEFINED" p0="35.4" q0="10.9" bus="BUS-81" connectableBus="BUS-81" p="35.4" q="10.9"/>
        </iidm:voltageLevel>
    </iidm:substation>
    <iidm:substation id="SUB-686">
        <iidm:voltageLevel id="VL-82" nominalV="1.0" topologyKind="BUS_BREAKER">
            <iidm:busBreakerTopology>
                <iidm:bus id="BUS-82" v="1.0248290956632582" angle="-45.02002680220021"/>
            </iidm:busBreakerTopology>
            <iidm:generator id="GEN-82" energySource="OTHER" minP="5.06" maxP="25.3" voltageRegulatorOn="true" targetP="1.3" targetV="1.025" targetQ="0.0" bus="BUS-82" connectableBus="BUS-82" p="-1.3" q="-0.0">
                <iidm:minMaxReactiveLimits minQ="0.0" maxQ="0.0"/>
            </iidm:generator>
            <iidm:load id="LOAD-82" loadType="UNDEFINED" p0="15.1" q0="0.7" bus="BUS-82" connectableBus="BUS-82" p="15.1" q="0.7"/>
        </iidm:voltageLevel>
    </iidm:substation>
    <iidm:substation id="SUB-685">
        <iidm:voltageLevel id="VL-83" nominalV="1.0" topologyKind="BUS_BREAKER">
            <iidm:busBreakerTopology>
                <iidm:bus id="BUS-83" v="1.0175647267242718" angle="-45.91266621653615"/>
            </iidm:busBreakerTopology>
            <iidm:load id="LOAD-83" loadType="UNDEFINED" p0="57.4" q0="18.0" bus="BUS-83" connectableBus="BUS-83" p="57.4" q="18.0"/>
        </iidm:voltageLevel>
    </iidm:substation>
    <iidm:substation id="SUB-684">
        <iidm:voltageLevel id="VL-84" nominalV="1.0" topologyKind="BUS_BREAKER">
            <iidm:busBreakerTopology>
                <iidm:bus id="BUS-84" v="1.0514955352098578" angle="-18.490201951682817"/>
            </iidm:busBreakerTopology>
            <iidm:load id="LOAD-84" loadType="UNDEFINED" p0="89.9" q0="-5.8" bus="BUS-84" connectableBus="BUS-84" p="89.9" q="-5.8"/>
        </iidm:voltageLevel>
    </iidm:substation>
    <iidm:substation id="SUB-683">
        <iidm:voltageLevel id="VL-85" nominalV="1.0" topologyKind="BUS_BREAKER">
            <iidm:busBreakerTopology>
                <iidm:bus id="BUS-85" v="1.0300417758990783" angle="-16.316581219607823"/>
            </iidm:busBreakerTopology>
        </iidm:voltageLevel>
        <iidm:voltageLevel id="VL-86" nominalV="1.0" topologyKind="BUS_BREAKER">
            <iidm:busBreakerTopology>
                <iidm:bus id="BUS-86" v="1.0682396542725505" angle="-16.30385101871244"/>
            </iidm:busBreakerTopology>
            <iidm:load id="LOAD-86" loadType="UNDEFINED" p0="239.8" q0="17.5" bus="BUS-86" connectableBus="BUS-86" p="239.8" q="17.5"/>
        </iidm:voltageLevel>
        <iidm:twoWindingsTransformer id="TWT-85-86" r="7.34E-6" x="4.5013999999999997E-4" g="0.0" b="0.0" ratedU1="0.956938" ratedU2="1.0" bus1="BUS-85" connectableBus1="BUS-85" voltageLevelId1="VL-85" bus2="BUS-86" connectableBus2="BUS-86" voltageLevelId2="VL-86" p1="-0.2495540703116444" q1="19.501778299430654" p2="0.2519638288252283" q2="-19.353995098160446">
...